
     RDKit          3D

<<<<<<< HEAD
 31 31  0  0  0  0  0  0  0  0999 V2000
   24.6608   34.5233  104.9738 O   0  0  0  0  0  0  0  0  0  0  0  0
   24.6275   34.5611  104.8018 O   0  0  0  0  0  0  0  0  0  0  0  0
   24.6322   34.5450  104.8090 O   0  0  0  0  0  0  0  0  0  0  0  0
   24.5808   34.5133  104.8797 O   0  0  0  0  0  0  0  0  0  0  0  0
   24.4769   34.5502  104.7604 O   0  0  0  0  0  0  0  0  0  0  0  0
   24.6367   34.5835  104.8109 O   0  0  0  0  0  0  0  0  0  0  0  0
   24.4954   34.4690  104.8623 O   0  0  0  0  0  0  0  0  0  0  0  0
   24.6188   34.5881  104.8961 O   0  0  0  0  0  0  0  0  0  0  0  0
   24.5417   34.4614  104.8430 O   0  0  0  0  0  0  0  0  0  0  0  0
   24.5379   34.5996  104.9306 O   0  0  0  0  0  0  0  0  0  0  0  0
   24.5622   34.6360  104.9109 O   0  0  0  0  0  0  0  0  0  0  0  0
   24.5850   34.6664  104.9235 O   0  0  0  0  0  0  0  0  0  0  0  0
   24.5828   34.5251  104.9440 O   0  0  0  0  0  0  0  0  0  0  0  0
   24.4885   34.3999  104.8370 O   0  0  0  0  0  0  0  0  0  0  0  0
   24.5229   34.5721  104.7086 O   0  0  0  0  0  0  0  0  0  0  0  0
   24.5521   34.4713  104.9080 O   0  0  0  0  0  0  0  0  0  0  0  0
   24.5731   34.5162  104.9974 O   0  0  0  0  0  0  0  0  0  0  0  0
   24.5599   34.4172  104.7951 O   0  0  0  0  0  0  0  0  0  0  0  0
   24.5889   34.5407  104.9227 O   0  0  0  0  0  0  0  0  0  0  0  0
   24.6392   34.4569  104.8038 O   0  0  0  0  0  0  0  0  0  0  0  0
   24.4854   34.4574  104.8857 O   0  0  0  0  0  0  0  0  0  0  0  0
   24.4561   34.5944  104.9993 O   0  0  0  0  0  0  0  0  0  0  0  0
   24.5599   34.4178  104.9527 O   0  0  0  0  0  0  0  0  0  0  0  0
   24.5254   34.5622  104.7612 O   0  0  0  0  0  0  0  0  0  0  0  0
   24.5497   34.6236  104.9941 O   0  0  0  0  0  0  0  0  0  0  0  0
   24.6213   34.4912  104.7595 O   0  0  0  0  0  0  0  0  0  0  0  0
   24.5211   34.7263  104.8636 O   0  0  0  0  0  0  0  0  0  0  0  0
   24.5630   34.5521  104.8142 O   0  0  0  0  0  0  0  0  0  0  0  0
   24.5981   34.5173  104.6737 O   0  0  0  0  0  0  0  0  0  0  0  0
   24.6491   34.5492  104.8548 O   0  0  0  0  0  0  0  0  0  0  0  0
   24.6342   34.5482  104.7988 O   0  0  0  0  0  0  0  0  0  0  0  0
 26 28  1  0
  5 28  1  0
 16 17  1  0
 18 26  1  0
  2  4  1  0
  4 31  1  0
  2 20  1  0
  9 20  1  0
 12 27  1  0
  8 31  1  0
  7 18  1  0
 10 22  1  0
 21 23  1  0
 17 23  1  0
  1  8  1  0
 11 27  1  0
 13 30  1  0
 13 25  1  0
 19 25  1  0
  3 24  1  0
 14 16  1  0
  3 19  1  0
  1 30  1  0
 24 29  1  0
  5  7  1  0
  6 11  1  0
  6 12  1  0
 10 21  1  0
  9 15  1  0
 14 15  1  0
 22 29  1  0
=======
 31  0  0  0  0  0  0  0  0  0999 V2000
    0.0214    0.0634    0.1818 C   0  0  0  0  0  0  0  0  0  0  0  0
    0.0213    0.0634    0.1818 C   0  0  0  0  0  0  0  0  0  0  0  0
    0.0215    0.0635    0.1818 C   0  0  0  0  0  0  0  0  0  0  0  0
    0.0215    0.0632    0.1818 C   0  0  0  0  0  0  0  0  0  0  0  0
    0.0216    0.0629    0.1816 C   0  0  0  0  0  0  0  0  0  0  0  0
    0.0214    0.0632    0.1817 C   0  0  0  0  0  0  0  0  0  0  0  0
    0.0213    0.0628    0.1813 C   0  0  0  0  0  0  0  0  0  0  0  0
    0.0216    0.0635    0.1820 C   0  0  0  0  0  0  0  0  0  0  0  0
    0.0212    0.0631    0.1815 C   0  0  0  0  0  0  0  0  0  0  0  0
    0.0215    0.0638    0.1821 C   0  0  0  0  0  0  0  0  0  0  0  0
    0.0213    0.0633    0.1818 C   0  0  0  0  0  0  0  0  0  0  0  0
    0.0214    0.0633    0.1816 C   0  0  0  0  0  0  0  0  0  0  0  0
    0.0218    0.0634    0.1820 C   0  0  0  0  0  0  0  0  0  0  0  0
    0.0216    0.0634    0.1818 C   0  0  0  0  0  0  0  0  0  0  0  0
    0.0223    0.0632    0.1822 C   0  0  0  0  0  0  0  0  0  0  0  0
    0.0212    0.0632    0.1816 C   0  0  0  0  0  0  0  0  0  0  0  0
    0.0210    0.0631    0.1812 C   0  0  0  0  0  0  0  0  0  0  0  0
    0.0212    0.0628    0.1813 C   0  0  0  0  0  0  0  0  0  0  0  0
    0.0217    0.0632    0.1820 C   0  0  0  0  0  0  0  0  0  0  0  0
    0.0215    0.0634    0.1818 C   0  0  0  0  0  0  0  0  0  0  0  0
    0.0219    0.0635    0.1822 C   0  0  0  0  0  0  0  0  0  0  0  0
    0.0218    0.0632    0.1820 C   0  0  0  0  0  0  0  0  0  0  0  0
    0.0215    0.0633    0.1818 C   0  0  0  0  0  0  0  0  0  0  0  0
    0.0218    0.0630    0.1820 C   0  0  0  0  0  0  0  0  0  0  0  0
    0.0216    0.0635    0.1819 C   0  0  0  0  0  0  0  0  0  0  0  0
    0.0212    0.0630    0.1814 C   0  0  0  0  0  0  0  0  0  0  0  0
    0.0214    0.0637    0.1819 C   0  0  0  0  0  0  0  0  0  0  0  0
    0.0214    0.0633    0.1818 C   0  0  0  0  0  0  0  0  0  0  0  0
    0.0216    0.0631    0.1816 C   0  0  0  0  0  0  0  0  0  0  0  0
    0.0219    0.0637    0.1823 C   0  0  0  0  0  0  0  0  0  0  0  0
    0.0217    0.0629    0.1816 C   0  0  0  0  0  0  0  0  0  0  0  0
>>>>>>> parent of 9f06ac1 (train and sample)
M  END
$$$$
