
     RDKit          3D

 31  0  0  0  0  0  0  0  0  0999 V2000
   24.7169   34.4619  104.9353 C   0  0  0  0  0  0  0  0  0  0  0  0
   24.6405   34.4826  104.7723 C   0  0  0  0  0  0  0  0  0  0  0  0
   24.6409   34.4640  104.7810 C   0  0  0  0  0  0  0  0  0  0  0  0
   24.5937   34.4342  104.8507 C   0  0  0  0  0  0  0  0  0  0  0  0
   24.5221   34.4851  104.7236 C   0  0  0  0  0  0  0  0  0  0  0  0
   24.6737   34.5148  104.7761 O   0  0  0  0  0  0  0  0  0  0  0  0
   24.5248   34.3975  104.8291 N   0  0  0  0  0  0  0  0  0  0  0  0
   24.6400   34.5131  104.8649 C   0  0  0  0  0  0  0  0  0  0  0  0
   24.5749   34.3921  104.8084 O   0  0  0  0  0  0  0  0  0  0  0  0
   24.5632   34.5268  104.8980 N   0  0  0  0  0  0  0  0  0  0  0  0
   24.5957   34.5662  104.8767 C   0  0  0  0  0  0  0  0  0  0  0  0
   24.6263   34.5998  104.8875 C   0  0  0  0  0  0  0  0  0  0  0  0
   24.6079   34.4510  104.9122 C   0  0  0  0  0  0  0  0  0  0  0  0
   24.5296   34.3333  104.8010 N   0  0  0  0  0  0  0  0  0  0  0  0
   24.5682   34.5074  104.6715 O   0  0  0  0  0  0  0  0  0  0  0  0
   24.5732   34.3956  104.8773 O   0  0  0  0  0  0  0  0  0  0  0  0
   24.6026   34.4448  104.9641 O   0  0  0  0  0  0  0  0  0  0  0  0
   24.6013   34.3508  104.7590 C   0  0  0  0  0  0  0  0  0  0  0  0
   24.5978   34.4598  104.8946 N   0  0  0  0  0  0  0  0  0  0  0  0
   24.6880   34.3931  104.7663 C   0  0  0  0  0  0  0  0  0  0  0  0
   24.5228   34.3898  104.8502 O   0  0  0  0  0  0  0  0  0  0  0  0
   24.5046   34.5307  104.9617 C   0  0  0  0  0  0  0  0  0  0  0  0
   24.6044   34.3526  104.9160 C   0  0  0  0  0  0  0  0  0  0  0  0
   24.5666   34.4953  104.7255 N   0  0  0  0  0  0  0  0  0  0  0  0
   24.5832   34.5545  104.9593 C   0  0  0  0  0  0  0  0  0  0  0  0
   24.6548   34.4218  104.7250 C   0  0  0  0  0  0  0  0  0  0  0  0
   24.5699   34.6627  104.8260 N   0  0  0  0  0  0  0  0  0  0  0  0
   24.5839   34.4757  104.7838 C   0  0  0  0  0  0  0  0  0  0  0  0
   24.6469   34.4535  104.6362 C   0  0  0  0  0  0  0  0  0  0  0  0
   24.6781   34.4770  104.8221 N   0  0  0  0  0  0  0  0  0  0  0  0
   24.6555   34.4731  104.7675 N   0  0  0  0  0  0  0  0  0  0  0  0
M  END
$$$$
