
     RDKit          3D

<<<<<<< HEAD
 31 31  0  0  0  0  0  0  0  0999 V2000
   24.5209   34.5358  104.9458 O   0  0  0  0  0  0  0  0  0  0  0  0
   24.5730   34.5664  104.9330 O   0  0  0  0  0  0  0  0  0  0  0  0
   24.6213   34.5647  104.8316 O   0  0  0  0  0  0  0  0  0  0  0  0
   24.6079   34.3946  104.9110 O   0  0  0  0  0  0  0  0  0  0  0  0
   24.5558   34.6880  104.8682 O   0  0  0  0  0  0  0  0  0  0  0  0
   24.5977   34.4728  104.8118 O   0  0  0  0  0  0  0  0  0  0  0  0
   24.6332   34.5116  104.8904 O   0  0  0  0  0  0  0  0  0  0  0  0
   24.5585   34.4473  104.7925 O   0  0  0  0  0  0  0  0  0  0  0  0
   24.5929   34.4632  104.7376 O   0  0  0  0  0  0  0  0  0  0  0  0
   24.4314   34.4922  104.7507 O   0  0  0  0  0  0  0  0  0  0  0  0
   24.6363   34.5618  104.8201 O   0  0  0  0  0  0  0  0  0  0  0  0
   24.5729   34.5157  104.7741 O   0  0  0  0  0  0  0  0  0  0  0  0
   24.6083   34.4563  104.8791 O   0  0  0  0  0  0  0  0  0  0  0  0
   24.6007   34.5586  104.7712 O   0  0  0  0  0  0  0  0  0  0  0  0
   24.5244   34.4894  104.8635 O   0  0  0  0  0  0  0  0  0  0  0  0
   24.6117   34.6393  104.9003 O   0  0  0  0  0  0  0  0  0  0  0  0
   24.5590   34.3319  104.7990 O   0  0  0  0  0  0  0  0  0  0  0  0
   24.6353   34.5995  104.7476 O   0  0  0  0  0  0  0  0  0  0  0  0
   24.6624   34.5234  104.7841 O   0  0  0  0  0  0  0  0  0  0  0  0
   24.6057   34.5161  104.7679 O   0  0  0  0  0  0  0  0  0  0  0  0
   24.6295   34.5729  104.7558 O   0  0  0  0  0  0  0  0  0  0  0  0
   24.5514   34.5306  104.9181 O   0  0  0  0  0  0  0  0  0  0  0  0
   24.6187   34.5483  104.8665 O   0  0  0  0  0  0  0  0  0  0  0  0
   24.6077   34.5801  104.8240 O   0  0  0  0  0  0  0  0  0  0  0  0
   24.4694   34.4595  104.8524 O   0  0  0  0  0  0  0  0  0  0  0  0
   24.6390   34.5117  104.9252 O   0  0  0  0  0  0  0  0  0  0  0  0
   24.5683   34.5171  104.7634 O   0  0  0  0  0  0  0  0  0  0  0  0
   24.6243   34.4855  104.8525 O   0  0  0  0  0  0  0  0  0  0  0  0
   24.5824   34.5522  104.8743 O   0  0  0  0  0  0  0  0  0  0  0  0
   24.5957   34.4811  104.9253 O   0  0  0  0  0  0  0  0  0  0  0  0
   24.6058   34.4525  104.8361 O   0  0  0  0  0  0  0  0  0  0  0  0
 24 28  1  0
  8 13  1  0
 15 28  1  0
 23 31  1  0
 13 22  1  0
  9 14  1  0
  3 16  1  0
  6 29  1  0
  9 19  1  0
 27 31  1  0
 20 23  1  0
 14 29  1  0
 12 15  1  0
 18 27  1  0
 12 18  1  0
  8 25  1  0
  6 24  1  0
  3 26  1  0
  7 19  1  0
 10 25  1  0
 11 16  1  0
 11 26  1  0
  4  7  1  0
  4 17  1  0
  2  5  1  0
 20 22  1  0
  1  5  1  0
  2 21  1  0
 21 30  1  0
 17 30  1  0
  1 10  1  0
=======
 31  0  0  0  0  0  0  0  0  0999 V2000
    0.0217    0.0632    0.1818 C   0  0  0  0  0  0  0  0  0  0  0  0
    0.0209    0.0629    0.1811 C   0  0  0  0  0  0  0  0  0  0  0  0
    0.0220    0.0632    0.1820 C   0  0  0  0  0  0  0  0  0  0  0  0
    0.0216    0.0631    0.1817 C   0  0  0  0  0  0  0  0  0  0  0  0
    0.0219    0.0633    0.1821 C   0  0  0  0  0  0  0  0  0  0  0  0
    0.0219    0.0635    0.1823 C   0  0  0  0  0  0  0  0  0  0  0  0
    0.0211    0.0628    0.1812 C   0  0  0  0  0  0  0  0  0  0  0  0
    0.0213    0.0634    0.1818 C   0  0  0  0  0  0  0  0  0  0  0  0
    0.0218    0.0632    0.1819 C   0  0  0  0  0  0  0  0  0  0  0  0
    0.0213    0.0635    0.1818 C   0  0  0  0  0  0  0  0  0  0  0  0
    0.0217    0.0634    0.1819 C   0  0  0  0  0  0  0  0  0  0  0  0
    0.0215    0.0631    0.1815 C   0  0  0  0  0  0  0  0  0  0  0  0
    0.0214    0.0633    0.1818 C   0  0  0  0  0  0  0  0  0  0  0  0
    0.0217    0.0632    0.1818 C   0  0  0  0  0  0  0  0  0  0  0  0
    0.0215    0.0634    0.1819 C   0  0  0  0  0  0  0  0  0  0  0  0
    0.0210    0.0631    0.1814 C   0  0  0  0  0  0  0  0  0  0  0  0
    0.0210    0.0631    0.1813 C   0  0  0  0  0  0  0  0  0  0  0  0
    0.0219    0.0630    0.1817 C   0  0  0  0  0  0  0  0  0  0  0  0
    0.0219    0.0633    0.1821 C   0  0  0  0  0  0  0  0  0  0  0  0
    0.0213    0.0633    0.1816 C   0  0  0  0  0  0  0  0  0  0  0  0
    0.0213    0.0634    0.1816 C   0  0  0  0  0  0  0  0  0  0  0  0
    0.0216    0.0634    0.1820 C   0  0  0  0  0  0  0  0  0  0  0  0
    0.0215    0.0634    0.1818 C   0  0  0  0  0  0  0  0  0  0  0  0
    0.0216    0.0632    0.1818 C   0  0  0  0  0  0  0  0  0  0  0  0
    0.0215    0.0630    0.1816 C   0  0  0  0  0  0  0  0  0  0  0  0
    0.0214    0.0637    0.1820 C   0  0  0  0  0  0  0  0  0  0  0  0
    0.0218    0.0632    0.1820 C   0  0  0  0  0  0  0  0  0  0  0  0
    0.0214    0.0631    0.1816 C   0  0  0  0  0  0  0  0  0  0  0  0
    0.0212    0.0631    0.1816 C   0  0  0  0  0  0  0  0  0  0  0  0
    0.0220    0.0635    0.1824 C   0  0  0  0  0  0  0  0  0  0  0  0
    0.0218    0.0629    0.1817 C   0  0  0  0  0  0  0  0  0  0  0  0
>>>>>>> parent of 9f06ac1 (train and sample)
M  END
$$$$
